Circuit: * C:\Users\robom\Documents\LTspiceXVII\speed_sensor.asc

WARNING: Less than two connections to node VOUT.  This node is used by R7.
Direct Newton iteration for .op point succeeded.

Date: Tue Aug 08 00:24:03 2023
Total elapsed time: 0.032 seconds.

tnom = 27
temp = 27
method = trap
totiter = 3
traniter = 0
tranpoints = 0
accept = 0
rejected = 0
matrix size = 12
fillins = 3
solver = Normal
Matrix Compiler1:      36 opcodes
Matrix Compiler2: 922 bytes object code size
